# RIV package for  MODFLOW-2005, generated by Flopy.
        49        53
        49         0 # stress period 1
         1        26         2            99.5       1000000.0            97.0
         1        26         3            98.5       1000000.0            96.0
         1        26         4            97.5       1000000.0            95.0
         1        26         5            96.5       1000000.0            94.0
         1        26         6            95.5       1000000.0            93.0
         1        26         7            94.5       1000000.0            92.0
         1        26         8            93.5       1000000.0            91.0
         1        26         9            92.5       1000000.0            90.0
         1        26        10            91.5       1000000.0            89.0
         1        26        11            90.5       1000000.0            88.0
         1        26        12            89.5       1000000.0            87.0
         1        26        13            88.5       1000000.0            86.0
         1        26        14            87.5       1000000.0            85.0
         1        26        15            86.5       1000000.0            84.0
         1        26        16            85.5       1000000.0            83.0
         1        26        17            84.5       1000000.0            82.0
         1        26        18            83.5       1000000.0            81.0
         1        26        19            82.5       1000000.0            80.0
         1        26        20            81.5       1000000.0            79.0
         1        26        21            80.5       1000000.0            78.0
         1        26        22            79.5       1000000.0            77.0
         1        26        23            78.5       1000000.0            76.0
         1        26        24            77.5       1000000.0            75.0
         1        26        25            76.5       1000000.0            74.0
         1        26        26            76.4       1000000.0            73.9
         1        26        27            76.3       1000000.0            73.8
         1        26        28            76.2       1000000.0            73.7
         1        26        29            76.1       1000000.0            73.6
         1        26        30            76.0       1000000.0            73.5
         1        26        31            75.9       1000000.0            73.4
         1        26        32            75.8       1000000.0            73.3
         1        26        33            75.7       1000000.0            73.2
         1        26        34            75.6       1000000.0            73.1
         1        26        35            75.5       1000000.0            73.0
         1        26        36            75.4       1000000.0            72.9
         1        26        37            75.3       1000000.0            72.8
         1        26        38            75.2       1000000.0            72.7
         1        26        39            75.1       1000000.0            72.6
         1        26        40            75.0       1000000.0            72.5
         1        26        41            74.9       1000000.0            72.4
         1        26        42            74.8       1000000.0            72.3
         1        26        43            74.7       1000000.0            72.2
         1        26        44            74.6       1000000.0            72.1
         1        26        45            74.5       1000000.0            72.0
         1        26        46            74.4       1000000.0            71.9
         1        26        47            74.3       1000000.0            71.8
         1        26        48            74.2       1000000.0            71.7
         1        26        49            74.1       1000000.0            71.6
         1        26        50            74.0       1000000.0            71.5
