# RIV package for  MODFLOW-2005, generated by Flopy.
        50        53
        50         0 # stress period 1
         1        27         1             0.5    1000000000.0            49.0
         1        27         2             0.5    1000000000.0            49.0
         1        27         3             0.5    1000000000.0            49.0
         1        27         4             0.5    1000000000.0            49.0
         1        27         5             0.5    1000000000.0            49.0
         1        27         6             0.5    1000000000.0            49.0
         1        27         7             0.5    1000000000.0            49.0
         1        27         8             0.5    1000000000.0            49.0
         1        27         9             0.5    1000000000.0            49.0
         1        27        10             0.5    1000000000.0            49.0
         1        27        11             0.5    1000000000.0            49.0
         1        27        12             0.5    1000000000.0            49.0
         1        27        13             0.5    1000000000.0            49.0
         1        27        14             0.5    1000000000.0            49.0
         1        27        15             0.5    1000000000.0            49.0
         1        27        16             0.5    1000000000.0            49.0
         1        27        17             0.5    1000000000.0            49.0
         1        27        18             0.5    1000000000.0            49.0
         1        27        19             0.5    1000000000.0            49.0
         1        27        20             0.5    1000000000.0            49.0
         1        27        21             0.5    1000000000.0            49.0
         1        27        22             0.5    1000000000.0            49.0
         1        27        23             0.5    1000000000.0            49.0
         1        27        24             0.5    1000000000.0            49.0
         1        27        25             0.5    1000000000.0            49.0
         1        27        26             0.5    1000000000.0            49.0
         1        27        27             0.5    1000000000.0            49.0
         1        27        28             0.5    1000000000.0            49.0
         1        27        29             0.5    1000000000.0            49.0
         1        27        30             0.5    1000000000.0            49.0
         1        27        31             0.5    1000000000.0            49.0
         1        27        32             0.5    1000000000.0            49.0
         1        27        33             0.5    1000000000.0            49.0
         1        27        34             0.5    1000000000.0            49.0
         1        27        35             0.5    1000000000.0            49.0
         1        27        36             0.5    1000000000.0            49.0
         1        27        37             0.5    1000000000.0            49.0
         1        27        38             0.5    1000000000.0            49.0
         1        27        39             0.5    1000000000.0            49.0
         1        27        40             0.5    1000000000.0            49.0
         1        27        41             0.5    1000000000.0            49.0
         1        27        42             0.5    1000000000.0            49.0
         1        27        43             0.5    1000000000.0            49.0
         1        27        44             0.5    1000000000.0            49.0
         1        27        45             0.5    1000000000.0            49.0
         1        27        46             0.5    1000000000.0            49.0
         1        27        47             0.5    1000000000.0            49.0
         1        27        48             0.5    1000000000.0            49.0
         1        27        49             0.5    1000000000.0            49.0
         1        27        50             0.5    1000000000.0            49.0
        -1         0 # stress period 2
        -1         0 # stress period 3
        -1         0 # stress period 4
        -1         0 # stress period 5
        -1         0 # stress period 6
        -1         0 # stress period 7
        -1         0 # stress period 8
        -1         0 # stress period 9
        -1         0 # stress period 10
        -1         0 # stress period 11
        -1         0 # stress period 12
        -1         0 # stress period 13
        -1         0 # stress period 14
        -1         0 # stress period 15
        -1         0 # stress period 16
        -1         0 # stress period 17
        -1         0 # stress period 18
        -1         0 # stress period 19
        -1         0 # stress period 20
        -1         0 # stress period 21
        -1         0 # stress period 22
        -1         0 # stress period 23
        -1         0 # stress period 24
        -1         0 # stress period 25
        -1         0 # stress period 26
        -1         0 # stress period 27
        -1         0 # stress period 28
        -1         0 # stress period 29
        -1         0 # stress period 30
        -1         0 # stress period 31
        -1         0 # stress period 32
        -1         0 # stress period 33
        -1         0 # stress period 34
        -1         0 # stress period 35
        -1         0 # stress period 36
        -1         0 # stress period 37
        -1         0 # stress period 38
        -1         0 # stress period 39
        -1         0 # stress period 40
        -1         0 # stress period 41
        -1         0 # stress period 42
        -1         0 # stress period 43
        -1         0 # stress period 44
        -1         0 # stress period 45
        -1         0 # stress period 46
        -1         0 # stress period 47
        -1         0 # stress period 48
        -1         0 # stress period 49
        -1         0 # stress period 50
        -1         0 # stress period 51
