# CHD package for  MODFLOW-2005, generated by Flopy.
       150
       150         0 # stress period 1
         1         1        50            70.0            70.0
         1         2        50            70.0            70.0
         1         3        50            70.0            70.0
         1         4        50            70.0            70.0
         1         5        50            70.0            70.0
         1         6        50            70.0            70.0
         1         7        50            70.0            70.0
         1         8        50            70.0            70.0
         1         9        50            70.0            70.0
         1        10        50            70.0            70.0
         1        11        50            70.0            70.0
         1        12        50            70.0            70.0
         1        13        50            70.0            70.0
         1        14        50            70.0            70.0
         1        15        50            70.0            70.0
         1        16        50            70.0            70.0
         1        17        50            70.0            70.0
         1        18        50            70.0            70.0
         1        19        50            70.0            70.0
         1        20        50            70.0            70.0
         1        21        50            70.0            70.0
         1        22        50            70.0            70.0
         1        23        50            70.0            70.0
         1        24        50            70.0            70.0
         1        25        50            70.0            70.0
         1        26        50            70.0            70.0
         1        27        50            70.0            70.0
         1        28        50            70.0            70.0
         1        29        50            70.0            70.0
         1        30        50            70.0            70.0
         1        31        50            70.0            70.0
         1        32        50            70.0            70.0
         1        33        50            70.0            70.0
         1        34        50            70.0            70.0
         1        35        50            70.0            70.0
         1        36        50            70.0            70.0
         1        37        50            70.0            70.0
         1        38        50            70.0            70.0
         1        39        50            70.0            70.0
         1        40        50            70.0            70.0
         1        41        50            70.0            70.0
         1        42        50            70.0            70.0
         1        43        50            70.0            70.0
         1        44        50            70.0            70.0
         1        45        50            70.0            70.0
         1        46        50            70.0            70.0
         1        47        50            70.0            70.0
         1        48        50            70.0            70.0
         1        49        50            70.0            70.0
         1        50        50            70.0            70.0
         2         1        50            70.0            70.0
         2         2        50            70.0            70.0
         2         3        50            70.0            70.0
         2         4        50            70.0            70.0
         2         5        50            70.0            70.0
         2         6        50            70.0            70.0
         2         7        50            70.0            70.0
         2         8        50            70.0            70.0
         2         9        50            70.0            70.0
         2        10        50            70.0            70.0
         2        11        50            70.0            70.0
         2        12        50            70.0            70.0
         2        13        50            70.0            70.0
         2        14        50            70.0            70.0
         2        15        50            70.0            70.0
         2        16        50            70.0            70.0
         2        17        50            70.0            70.0
         2        18        50            70.0            70.0
         2        19        50            70.0            70.0
         2        20        50            70.0            70.0
         2        21        50            70.0            70.0
         2        22        50            70.0            70.0
         2        23        50            70.0            70.0
         2        24        50            70.0            70.0
         2        25        50            70.0            70.0
         2        26        50            70.0            70.0
         2        27        50            70.0            70.0
         2        28        50            70.0            70.0
         2        29        50            70.0            70.0
         2        30        50            70.0            70.0
         2        31        50            70.0            70.0
         2        32        50            70.0            70.0
         2        33        50            70.0            70.0
         2        34        50            70.0            70.0
         2        35        50            70.0            70.0
         2        36        50            70.0            70.0
         2        37        50            70.0            70.0
         2        38        50            70.0            70.0
         2        39        50            70.0            70.0
         2        40        50            70.0            70.0
         2        41        50            70.0            70.0
         2        42        50            70.0            70.0
         2        43        50            70.0            70.0
         2        44        50            70.0            70.0
         2        45        50            70.0            70.0
         2        46        50            70.0            70.0
         2        47        50            70.0            70.0
         2        48        50            70.0            70.0
         2        49        50            70.0            70.0
         2        50        50            70.0            70.0
         3         1        50            70.0            70.0
         3         2        50            70.0            70.0
         3         3        50            70.0            70.0
         3         4        50            70.0            70.0
         3         5        50            70.0            70.0
         3         6        50            70.0            70.0
         3         7        50            70.0            70.0
         3         8        50            70.0            70.0
         3         9        50            70.0            70.0
         3        10        50            70.0            70.0
         3        11        50            70.0            70.0
         3        12        50            70.0            70.0
         3        13        50            70.0            70.0
         3        14        50            70.0            70.0
         3        15        50            70.0            70.0
         3        16        50            70.0            70.0
         3        17        50            70.0            70.0
         3        18        50            70.0            70.0
         3        19        50            70.0            70.0
         3        20        50            70.0            70.0
         3        21        50            70.0            70.0
         3        22        50            70.0            70.0
         3        23        50            70.0            70.0
         3        24        50            70.0            70.0
         3        25        50            70.0            70.0
         3        26        50            70.0            70.0
         3        27        50            70.0            70.0
         3        28        50            70.0            70.0
         3        29        50            70.0            70.0
         3        30        50            70.0            70.0
         3        31        50            70.0            70.0
         3        32        50            70.0            70.0
         3        33        50            70.0            70.0
         3        34        50            70.0            70.0
         3        35        50            70.0            70.0
         3        36        50            70.0            70.0
         3        37        50            70.0            70.0
         3        38        50            70.0            70.0
         3        39        50            70.0            70.0
         3        40        50            70.0            70.0
         3        41        50            70.0            70.0
         3        42        50            70.0            70.0
         3        43        50            70.0            70.0
         3        44        50            70.0            70.0
         3        45        50            70.0            70.0
         3        46        50            70.0            70.0
         3        47        50            70.0            70.0
         3        48        50            70.0            70.0
         3        49        50            70.0            70.0
         3        50        50            70.0            70.0
