# RIV package for  MODFLOW-2005, generated by Flopy.
        49        53
        49         0 # stress period 1
         1        25         2           100.5          1000.0            98.0
         1        25         3            99.5          1000.0            97.0
         1        25         4            98.5          1000.0            96.0
         1        25         5            97.5          1000.0            95.0
         1        25         6            96.5          1000.0            94.0
         1        25         7            95.5          1000.0            93.0
         1        25         8            94.5          1000.0            92.0
         1        25         9            93.5          1000.0            91.0
         1        25        10            92.5          1000.0            90.0
         1        25        11            91.5          1000.0            89.0
         1        25        12            90.5          1000.0            88.0
         1        25        13            89.5          1000.0            87.0
         1        25        14            88.5          1000.0            86.0
         1        25        15            87.5          1000.0            85.0
         1        25        16            86.5          1000.0            84.0
         1        25        17            85.5          1000.0            83.0
         1        25        18            84.5          1000.0            82.0
         1        25        19            83.5          1000.0            81.0
         1        25        20            82.5          1000.0            80.0
         1        25        21            81.5          1000.0            79.0
         1        25        22            80.5          1000.0            78.0
         1        25        23            79.5          1000.0            77.0
         1        25        24            78.5          1000.0            76.0
         1        25        25            77.5          1000.0            75.0
         1        25        26            77.4          1000.0            74.9
         1        25        27            77.3          1000.0            74.8
         1        25        28            77.2          1000.0            74.7
         1        25        29            77.1          1000.0            74.6
         1        25        30            77.0          1000.0            74.5
         1        25        31            76.9          1000.0            74.4
         1        25        32            76.8          1000.0            74.3
         1        25        33            76.7          1000.0            74.2
         1        25        34            76.6          1000.0            74.1
         1        25        35            76.5          1000.0            74.0
         1        25        36            76.4          1000.0            73.9
         1        25        37            76.3          1000.0            73.8
         1        25        38            76.2          1000.0            73.7
         1        25        39            76.1          1000.0            73.6
         1        25        40            76.0          1000.0            73.5
         1        25        41            75.9          1000.0            73.4
         1        25        42            75.8          1000.0            73.3
         1        25        43            75.7          1000.0            73.2
         1        25        44            75.6          1000.0            73.1
         1        25        45            75.5          1000.0            73.0
         1        25        46            75.4          1000.0            72.9
         1        25        47            75.3          1000.0            72.8
         1        25        48            75.2          1000.0            72.7
         1        25        49            75.1          1000.0            72.6
         1        25        50            75.0          1000.0            72.5
