# RIV package for  MODFLOW-2005, generated by Flopy.
        49        53
        49         0 # stress period 1
         1        25         2           100.5          1000.0            98.0
         1        25         3            99.5          1000.0            97.0
         1        25         4            98.5          1000.0            96.0
         1        25         5            97.5          1000.0            95.0
         1        25         6            96.5          1000.0            94.0
         1        25         7            95.5          1000.0            93.0
         1        25         8            94.5          1000.0            92.0
         1        25         9            93.5          1000.0            91.0
         1        25        10            92.5          1000.0            90.0
         1        25        11            91.5          1000.0            89.0
         1        25        12            90.5          1000.0            88.0
         1        25        13            89.5          1000.0            87.0
         1        25        14            88.5          1000.0            86.0
         1        25        15            87.5          1000.0            85.0
         1        25        16            86.5          1000.0            84.0
         1        25        17            85.5          1000.0            83.0
         1        25        18            84.5          1000.0            82.0
         1        25        19            83.5          1000.0            81.0
         1        25        20            82.5          1000.0            80.0
         1        25        21            81.5          1000.0            79.0
         1        25        22            80.5          1000.0            78.0
         1        25        23            79.5          1000.0            77.0
         1        25        24            78.5          1000.0            76.0
         1        25        25            77.5          1000.0            75.0
         1        25        26            77.4          1000.0            74.9
         1        25        27            77.3          1000.0            74.8
         1        25        28            77.2          1000.0            74.7
         1        25        29            77.1          1000.0            74.6
         1        25        30            77.0          1000.0            74.5
         1        25        31            76.9          1000.0            74.4
         1        25        32            76.8          1000.0            74.3
         1        25        33            76.7          1000.0            74.2
         1        25        34            76.6          1000.0            74.1
         1        25        35            76.5          1000.0            74.0
         1        25        36            76.4          1000.0            73.9
         1        25        37            76.3          1000.0            73.8
         1        25        38            76.2          1000.0            73.7
         1        25        39            76.1          1000.0            73.6
         1        25        40            76.0          1000.0            73.5
         1        25        41            75.9          1000.0            73.4
         1        25        42            75.8          1000.0            73.3
         1        25        43            75.7          1000.0            73.2
         1        25        44            75.6          1000.0            73.1
         1        25        45            75.5          1000.0            73.0
         1        25        46            75.4          1000.0            72.9
         1        25        47            75.3          1000.0            72.8
         1        25        48            75.2          1000.0            72.7
         1        25        49            75.1          1000.0            72.6
         1        25        50            75.0          1000.0            72.5
        -1         0 # stress period 2
        -1         0 # stress period 3
        -1         0 # stress period 4
        -1         0 # stress period 5
        -1         0 # stress period 6
        -1         0 # stress period 7
        -1         0 # stress period 8
        -1         0 # stress period 9
        -1         0 # stress period 10
        -1         0 # stress period 11
        -1         0 # stress period 12
        -1         0 # stress period 13
        -1         0 # stress period 14
        -1         0 # stress period 15
        -1         0 # stress period 16
        -1         0 # stress period 17
        -1         0 # stress period 18
        -1         0 # stress period 19
        -1         0 # stress period 20
        -1         0 # stress period 21
        -1         0 # stress period 22
        -1         0 # stress period 23
        -1         0 # stress period 24
        -1         0 # stress period 25
        -1         0 # stress period 26
        -1         0 # stress period 27
        -1         0 # stress period 28
        -1         0 # stress period 29
        -1         0 # stress period 30
        -1         0 # stress period 31
        -1         0 # stress period 32
        -1         0 # stress period 33
        -1         0 # stress period 34
        -1         0 # stress period 35
        -1         0 # stress period 36
        -1         0 # stress period 37
        -1         0 # stress period 38
        -1         0 # stress period 39
        -1         0 # stress period 40
        -1         0 # stress period 41
        -1         0 # stress period 42
        -1         0 # stress period 43
        -1         0 # stress period 44
        -1         0 # stress period 45
        -1         0 # stress period 46
        -1         0 # stress period 47
        -1         0 # stress period 48
        -1         0 # stress period 49
        -1         0 # stress period 50
        -1         0 # stress period 51
        -1         0 # stress period 52
        -1         0 # stress period 53
        -1         0 # stress period 54
        -1         0 # stress period 55
        -1         0 # stress period 56
        -1         0 # stress period 57
        -1         0 # stress period 58
        -1         0 # stress period 59
        -1         0 # stress period 60
        -1         0 # stress period 61
        -1         0 # stress period 62
        -1         0 # stress period 63
        -1         0 # stress period 64
        -1         0 # stress period 65
        -1         0 # stress period 66
        -1         0 # stress period 67
        -1         0 # stress period 68
        -1         0 # stress period 69
        -1         0 # stress period 70
        -1         0 # stress period 71
        -1         0 # stress period 72
        -1         0 # stress period 73
        -1         0 # stress period 74
        -1         0 # stress period 75
        -1         0 # stress period 76
        -1         0 # stress period 77
        -1         0 # stress period 78
        -1         0 # stress period 79
        -1         0 # stress period 80
        -1         0 # stress period 81
        -1         0 # stress period 82
        -1         0 # stress period 83
        -1         0 # stress period 84
        -1         0 # stress period 85
        -1         0 # stress period 86
        -1         0 # stress period 87
        -1         0 # stress period 88
        -1         0 # stress period 89
        -1         0 # stress period 90
        -1         0 # stress period 91
        -1         0 # stress period 92
        -1         0 # stress period 93
        -1         0 # stress period 94
        -1         0 # stress period 95
        -1         0 # stress period 96
        -1         0 # stress period 97
        -1         0 # stress period 98
        -1         0 # stress period 99
        -1         0 # stress period 100
        -1         0 # stress period 101
        -1         0 # stress period 102
        -1         0 # stress period 103
        -1         0 # stress period 104
        -1         0 # stress period 105
        -1         0 # stress period 106
        -1         0 # stress period 107
        -1         0 # stress period 108
        -1         0 # stress period 109
        -1         0 # stress period 110
        -1         0 # stress period 111
        -1         0 # stress period 112
        -1         0 # stress period 113
        -1         0 # stress period 114
        -1         0 # stress period 115
        -1         0 # stress period 116
        -1         0 # stress period 117
        -1         0 # stress period 118
        -1         0 # stress period 119
        -1         0 # stress period 120
        -1         0 # stress period 121
        -1         0 # stress period 122
        -1         0 # stress period 123
        -1         0 # stress period 124
        -1         0 # stress period 125
        -1         0 # stress period 126
        -1         0 # stress period 127
        -1         0 # stress period 128
        -1         0 # stress period 129
        -1         0 # stress period 130
        -1         0 # stress period 131
        -1         0 # stress period 132
        -1         0 # stress period 133
        -1         0 # stress period 134
        -1         0 # stress period 135
        -1         0 # stress period 136
        -1         0 # stress period 137
        -1         0 # stress period 138
        -1         0 # stress period 139
        -1         0 # stress period 140
        -1         0 # stress period 141
        -1         0 # stress period 142
        -1         0 # stress period 143
        -1         0 # stress period 144
        -1         0 # stress period 145
        -1         0 # stress period 146
        -1         0 # stress period 147
        -1         0 # stress period 148
        -1         0 # stress period 149
        -1         0 # stress period 150
        -1         0 # stress period 151
        -1         0 # stress period 152
        -1         0 # stress period 153
        -1         0 # stress period 154
        -1         0 # stress period 155
        -1         0 # stress period 156
        -1         0 # stress period 157
        -1         0 # stress period 158
        -1         0 # stress period 159
        -1         0 # stress period 160
        -1         0 # stress period 161
        -1         0 # stress period 162
        -1         0 # stress period 163
        -1         0 # stress period 164
        -1         0 # stress period 165
        -1         0 # stress period 166
        -1         0 # stress period 167
        -1         0 # stress period 168
        -1         0 # stress period 169
        -1         0 # stress period 170
        -1         0 # stress period 171
        -1         0 # stress period 172
        -1         0 # stress period 173
        -1         0 # stress period 174
        -1         0 # stress period 175
        -1         0 # stress period 176
        -1         0 # stress period 177
        -1         0 # stress period 178
        -1         0 # stress period 179
        -1         0 # stress period 180
        -1         0 # stress period 181
        -1         0 # stress period 182
        -1         0 # stress period 183
        -1         0 # stress period 184
        -1         0 # stress period 185
        -1         0 # stress period 186
        -1         0 # stress period 187
        -1         0 # stress period 188
        -1         0 # stress period 189
        -1         0 # stress period 190
        -1         0 # stress period 191
        -1         0 # stress period 192
        -1         0 # stress period 193
        -1         0 # stress period 194
        -1         0 # stress period 195
        -1         0 # stress period 196
        -1         0 # stress period 197
        -1         0 # stress period 198
        -1         0 # stress period 199
        -1         0 # stress period 200
        -1         0 # stress period 201
        -1         0 # stress period 202
        -1         0 # stress period 203
        -1         0 # stress period 204
        -1         0 # stress period 205
        -1         0 # stress period 206
        -1         0 # stress period 207
        -1         0 # stress period 208
        -1         0 # stress period 209
        -1         0 # stress period 210
        -1         0 # stress period 211
        -1         0 # stress period 212
        -1         0 # stress period 213
        -1         0 # stress period 214
        -1         0 # stress period 215
        -1         0 # stress period 216
        -1         0 # stress period 217
        -1         0 # stress period 218
        -1         0 # stress period 219
        -1         0 # stress period 220
        -1         0 # stress period 221
        -1         0 # stress period 222
        -1         0 # stress period 223
        -1         0 # stress period 224
        -1         0 # stress period 225
        -1         0 # stress period 226
        -1         0 # stress period 227
        -1         0 # stress period 228
        -1         0 # stress period 229
        -1         0 # stress period 230
        -1         0 # stress period 231
        -1         0 # stress period 232
        -1         0 # stress period 233
        -1         0 # stress period 234
        -1         0 # stress period 235
        -1         0 # stress period 236
        -1         0 # stress period 237
        -1         0 # stress period 238
        -1         0 # stress period 239
        -1         0 # stress period 240
        -1         0 # stress period 241
        -1         0 # stress period 242
        -1         0 # stress period 243
        -1         0 # stress period 244
        -1         0 # stress period 245
        -1         0 # stress period 246
        -1         0 # stress period 247
        -1         0 # stress period 248
        -1         0 # stress period 249
        -1         0 # stress period 250
        -1         0 # stress period 251
